88
-3488.944309597633
Pd    -0.726097    0.690453   -0.316884
P      3.433121    1.171437    0.321231
P      0.808477    3.741258   -0.304075
C      3.411699    2.292784   -1.135683
C      4.012156    3.545871   -1.183689
C      3.970341    4.292603   -2.346872
H      4.431047    5.269718   -2.371770
C      3.342513    3.795614   -3.476042
H      3.320476    4.378095   -4.384561
C      2.765640    2.537137   -3.445257
H      2.288647    2.135544   -4.327975
H      4.516068    3.940061   -0.314786
C      2.808733    1.788812   -2.284490
H      2.398091    0.787177   -2.261322
C      1.631091    1.294844    0.833301
C      0.969880    2.625172    1.186669
C      4.536681    2.193685    1.393234
C      5.874837    1.885089    1.134461
H      6.103700    1.067648    0.463023
C      6.904942    2.608458    1.700722
H      7.930814    2.353643    1.479025
C      6.617479    3.663785    2.549860
C      5.297745    3.953151    2.847437
H      5.065649    4.766597    3.518981
H      7.417527    4.254651    2.972157
C      4.261871    3.226269    2.281504
H      3.251328    3.492967    2.546541
C      0.272693    5.300015    0.491398
C      0.144914    5.520035    1.857719
C     -0.044015    6.801649    2.344776
H     -0.124609    6.963386    3.410055
C     -0.120914    7.877324    1.478368
H     -0.239022    8.878030    1.866187
C     -0.028550    7.666199    0.112083
H     -0.096118    8.500181   -0.571193
H      0.198681    4.703533    2.560881
C      0.170370    6.389188   -0.372772
H      0.268186    6.215424   -1.436042
C     -0.792530    3.063556   -0.933095
C     -2.045482    3.489339   -0.479455
H     -2.105927    4.189781    0.342597
C     -3.200932    3.052517   -1.100182
H     -4.163676    3.382703   -0.736927
C     -3.132391    2.206519   -2.199903
C     -1.905306    1.782157   -2.677491
H     -1.853459    1.156505   -3.560569
H     -4.038696    1.868028   -2.676624
C     -0.727943    2.198992   -2.044256
H      0.234190    2.019646   -2.526143
H      1.543032    3.149177    1.951307
H     -0.042619    2.417608    1.573304
H      1.069192    0.839642   -0.032666
H      1.525284    0.603509    1.683420
C     -3.799639   -2.310192   -2.563479
C     -5.171664   -2.369663   -2.273076
C     -5.692205   -1.603618   -1.270112
C     -4.878768   -0.730175   -0.517129
C     -3.484228   -0.675249   -0.806612
C     -2.981632   -1.483550   -1.850632
C     -2.652557    0.163420   -0.045210
C     -3.197792    0.917484    0.975109
C     -4.577784    0.913507    1.230272
C     -5.397916    0.097324    0.495546
H     -3.400123   -2.932221   -3.350329
H     -5.808911   -3.023847   -2.850234
H     -6.743875   -1.662990   -1.030197
H     -1.921383   -1.430098   -2.061431
H     -5.001604    1.552237    1.992438
H     -6.461979    0.090304    0.690907
O     -2.273310    1.665322    1.691221
C     -2.718814    2.458684    2.761287
H     -1.836127    2.964379    3.154287
H     -3.161794    1.851199    3.557090
H     -3.436884    3.216172    2.430518
H     -1.532451   -0.884035    2.362549
C     -1.019812   -1.574689    1.705599
C     -0.855964   -2.887945    2.119746
H     -1.234397   -3.200023    3.082248
C     -0.237335   -3.807098    1.292090
H     -0.152627   -4.844616    1.585532
C      0.280778   -3.389376    0.081144
H      0.778265   -4.095732   -0.570993
C      0.147714   -2.069401   -0.334161
C     -0.551054   -1.157768    0.466333
C      0.786792   -1.650649   -1.639897
H      0.663602   -2.424866   -2.395760
H      1.858928   -1.492663   -1.490509
H      0.342992   -0.716128   -2.023667
88

Pd    -0.055437   -0.460451    0.411180
P      3.776026    0.010592   -0.533592
P      1.204358    2.061048    0.823320
C      5.362384   -0.465009    0.260588
C      5.598514   -1.745719    0.748048
C      6.813832   -2.062239    1.321665
H      6.986900   -3.063476    1.688026
C      7.810368   -1.103407    1.412493
H      8.761968   -1.349366    1.859075
C      7.586315    0.173156    0.927995
H      8.365996    0.918947    0.986929
H      4.833560   -2.503851    0.659238
C      6.367896    0.490279    0.353951
H      6.203832    1.485697   -0.036388
C      2.620491   -0.424920    0.872859
C      2.365406    0.842119    1.675433
C      3.539314   -1.397632   -1.673072
C      4.638824   -1.910617   -2.358113
H      5.635500   -1.572867   -2.108730
C      4.465984   -2.853490   -3.352107
H      5.326553   -3.250621   -3.869719
C      3.196829   -3.290275   -3.694915
C      2.094802   -2.758765   -3.048204
H      1.096086   -3.070513   -3.321737
H      3.068780   -4.031237   -4.470642
C      2.266051   -1.804868   -2.062053
H      1.379983   -1.367467   -1.606213
C      1.447372    1.897995   -1.014453
C      0.504868    1.072161   -1.629628
C      0.445494    0.932280   -3.006724
H     -0.290314    0.276538   -3.453180
C      1.324184    1.647139   -3.800770
H      1.281207    1.560470   -4.875552
C      2.238614    2.503927   -3.208893
H      2.910416    3.075989   -3.833421
H     -0.270310    0.579550   -1.002684
C      2.301304    2.637253   -1.834356
H      3.023709    3.321060   -1.416302
C      2.204371    3.584661    1.053074
C      3.572855    3.601806    0.796662
H      4.083901    2.687593    0.521039
C      4.282120    4.785404    0.857816
H      5.337804    4.795026    0.622519
C      3.635064    5.964551    1.195096
C      2.280133    5.955847    1.474951
H      1.775393    6.876550    1.735437
H      4.190080    6.889959    1.242383
C      1.569142    4.769954    1.399235
H      0.507050    4.766275    1.599167
H      3.311604    1.312525    1.954694
H      1.835141    0.582294    2.603490
H      1.642367   -0.823970    0.505232
H      3.086123   -1.186077    1.513336
C     -3.050645   -2.682741   -2.439219
C     -4.393309   -2.314385   -2.635769
C     -4.938529   -1.284050   -1.923216
C     -4.165767   -0.558806   -0.990599
C     -2.811083   -0.946220   -0.774715
C     -2.283980   -2.020579   -1.526701
C     -2.032508   -0.245571    0.157788
C     -2.561010    0.843908    0.821810
C     -3.897224    1.227250    0.620870
C     -4.678502    0.532207   -0.266034
H     -2.633139   -3.498158   -3.011962
H     -4.988622   -2.861834   -3.352028
H     -5.977153   -1.009842   -2.056267
H     -1.247199   -2.303232   -1.351005
H     -4.316280    2.067447    1.154957
H     -5.706648    0.830059   -0.423054
O     -1.668771    1.485143    1.650960
C     -2.112370    2.532340    2.471968
H     -1.230682    2.861754    3.022418
H     -2.877549    2.196211    3.181917
H     -2.503268    3.374369    1.889597
H     -1.750568   -0.452631    2.987827
C     -1.361734   -1.456779    2.911109
C     -1.703900   -2.359804    3.903034
H     -2.354428   -2.050589    4.708438
C     -1.217273   -3.652207    3.860764
H     -1.497795   -4.369073    4.621795
C     -0.396448   -4.030486    2.816608
H      0.006562   -5.035405    2.783402
C     -0.080965   -3.143361    1.790544
C     -0.561580   -1.828880    1.836783
C      0.758330   -3.651943    0.644111
H      0.584748   -3.048269   -0.251808
H      0.502458   -4.684409    0.411077
H      1.821944   -3.614070    0.891116
88

Pd     1.390335    0.854236    0.584712
P      4.889745    2.328646    0.047696
P      1.650234    3.469774    0.706396
C      6.509470    1.899515    0.795520
C      6.847965    0.635966    1.268986
C      8.117929    0.400844    1.761996
H      8.381357   -0.588249    2.110186
C      9.051958    1.424881    1.799289
H     10.042441    1.231904    2.184731
C      8.717410    2.687938    1.339927
H      9.442817    3.488016    1.372321
H      6.122551   -0.166484    1.254348
C      7.453603    2.919344    0.829511
H      7.184444    3.898380    0.451820
C      3.728277    1.592794    1.310660
C      2.923653    2.750136    1.898076
C      4.885377    1.130608   -1.339064
C      6.045718    1.071522   -2.110611
H      6.908815    1.651632   -1.814166
C      6.097698    0.290735   -3.246610
H      7.007103    0.241517   -3.824864
C      4.978890   -0.413851   -3.657676
C      3.809375   -0.323893   -2.925009
H      2.923285   -0.845990   -3.255666
H      5.021003   -1.018729   -4.551537
C      3.757160    0.442875   -1.773856
H      2.801196    0.497626   -1.237910
C      2.177412    3.316050   -1.068070
C      1.345132    2.491940   -1.830485
C      1.537114    2.333217   -3.193740
H      0.880570    1.682690   -3.754970
C      2.563345    3.012324   -3.822450
H      2.739083    2.880852   -4.879642
C      3.353258    3.885668   -3.091060
H      4.131183    4.443606   -3.590904
H      0.499142    1.990180   -1.360198
C      3.153749    4.055214   -1.733410
H      3.753238    4.774535   -1.197181
C      2.075144    5.249741    0.886927
C      3.376890    5.721146    1.040129
H      4.218032    5.037703    1.065430
C      3.618808    7.077045    1.159840
H      4.631788    7.429270    1.298340
C      2.570014    7.979233    1.091122
C      1.277074    7.520241    0.907722
H      0.459981    8.222928    0.835913
H      2.763667    9.038369    1.171381
C      1.030339    6.162677    0.808659
H      0.018088    5.801241    0.673376
H      3.584883    3.525239    2.297603
H      2.297320    2.390249    2.734645
H      3.049862    0.852342    0.830695
H      4.287278    1.083014    2.106624
C     -1.146661   -1.498093   -2.634976
C     -2.531160   -1.333398   -2.817475
C     -3.235637   -0.488676   -2.009501
C     -2.593286    0.244720   -0.991528
C     -1.196140    0.066265   -0.792768
C     -0.495509   -0.816320   -1.647811
C     -0.557398    0.766613    0.242853
C     -1.281551    1.616609    1.055601
C     -2.644991    1.852289    0.816546
C     -3.281837    1.163704   -0.181260
H     -0.608609   -2.170954   -3.287308
H     -3.033728   -1.881420   -3.600718
H     -4.304598   -0.374010   -2.123719
H      0.574517   -0.938439   -1.483464
H     -3.189946    2.580250    1.398833
H     -4.330813    1.336896   -0.368090
O     -0.565311    2.179965    2.094954
C     -1.294351    2.819257    3.108937
H     -0.589596    3.031696    3.910789
H     -2.092127    2.175645    3.495491
H     -1.733452    3.762450    2.765400
H     -0.520345   -0.276243    2.668201
C      0.082968   -1.126366    2.372880
C     -0.235706   -2.366185    2.904672
H     -1.084351   -2.458299    3.565640
C      0.514562   -3.474820    2.566999
H      0.261875   -4.451194    2.951500
C      1.614779   -3.316027    1.747071
H      2.236801   -4.170868    1.522819
C      1.943534   -2.082229    1.196525
C      1.134907   -0.972748    1.475784
C      3.181677   -1.994996    0.340940
H      2.927061   -1.887236   -0.714696
H      3.808380   -1.153490    0.639622
H      3.777504   -2.898860    0.445758
88

Pd     1.365409    1.013188   -1.071572
P      5.622957    2.702564    1.067475
P      3.379755    3.676208   -0.505563
C      6.707976    3.006705    2.518676
C      6.762949    2.204947    3.654109
C      7.532376    2.590210    4.737562
H      7.570499    1.968422    5.621201
C      8.248347    3.776841    4.702280
H      8.841897    4.077084    5.554322
C      8.215129    4.568173    3.567419
H      8.779052    5.488873    3.532530
H      6.196210    1.284589    3.691765
C      7.449724    4.183483    2.481835
H      7.410038    4.809683    1.600166
C      3.985263    2.600940    1.991930
C      2.795852    2.831333    1.055261
C      5.893259    0.924288    0.720264
C      7.037566    0.208440    1.062596
H      7.819846    0.682279    1.639650
C      7.162027   -1.120962    0.692799
H      8.049796   -1.672256    0.968386
C      6.160835   -1.753240   -0.027369
C      5.050944   -1.028420   -0.427282
H      4.271507   -1.493355   -1.015153
H      6.249595   -2.800647   -0.280413
C      4.927278    0.298692   -0.062123
H      4.053189    0.859800   -0.374457
C      2.214054    2.969658   -1.758987
C      1.052877    3.602192   -2.237432
C      0.506147    3.235389   -3.453711
H     -0.358951    3.761618   -3.830934
C      1.087368    2.233114   -4.221724
H      0.688908    2.001152   -5.195887
C      2.199656    1.557721   -3.758024
H      2.690360    0.820302   -4.379938
H      0.636271    4.444369   -1.700584
C      2.774216    1.918748   -2.535786
H      3.777147    1.562467   -2.308201
C      2.702163    5.367428   -0.269813
C      3.524345    6.403923   -0.700842
H      4.492948    6.157518   -1.113056
C      3.114589    7.721365   -0.607595
H      3.766123    8.513725   -0.946485
C      1.867635    8.019010   -0.084986
C      1.045751    6.995610    0.359461
H      0.071219    7.227863    0.766827
H      1.538213    9.046013   -0.020207
C      1.460973    5.678072    0.279590
H      0.800831    4.898262    0.636896
H      2.024264    3.431504    1.543361
H      2.332263    1.873385    0.745974
H      3.904847    1.642077    2.513345
H      4.039359    3.390889    2.749442
C     -0.260901   -0.930669   -4.194305
C     -1.153957    0.095248   -4.546094
C     -1.631519    0.945572   -3.587665
C     -1.256034    0.806185   -2.233521
C     -0.397950   -0.277973   -1.861236
C      0.114270   -1.113309   -2.892227
C     -0.173567   -0.565894   -0.469236
C     -0.678876    0.322343    0.495198
C     -1.377560    1.485959    0.094824
C     -1.696047    1.690302   -1.225773
H      0.137645   -1.577039   -4.964849
H     -1.442737    0.213348   -5.581725
H     -2.302075    1.751031   -3.849524
H      0.795394   -1.913488   -2.628314
H     -1.727788    2.187267    0.840977
H     -2.312790    2.536258   -1.494256
O     -0.591555   -0.095471    1.797421
C     -1.283411    0.615130    2.792770
H     -1.204192    0.010003    3.693907
H     -2.340754    0.739513    2.543401
H     -0.828738    1.593790    2.975027
H     -1.294694   -2.866262   -1.128056
C     -0.400674   -3.023076   -0.544450
C      0.023513   -4.310649   -0.277179
H     -0.534207   -5.153477   -0.660897
C      1.178176   -4.510392    0.459087
H      1.532534   -5.510758    0.647020
C      1.879221   -3.423870    0.944055
H      2.783569   -3.572838    1.515531
C      1.453616   -2.127321    0.692458
C      0.313733   -1.917162   -0.087695
C      2.231096   -0.963734    1.206446
H      3.252303   -1.244937    1.455149
H      1.749633   -0.551250    2.094992
H      2.233502   -0.184111    0.411741
88

Pd    -0.319540    1.757998    0.177208
P      1.828211    2.450806   -0.326517
P     -0.783886    3.871176   -0.758221
C      3.541714    1.826826   -0.433804
C      4.484425    2.161850    0.536048
C      5.759571    1.630975    0.486418
H      6.483094    1.909482    1.238448
C      6.107321    0.743535   -0.517348
H      7.109540    0.343420   -0.561600
C      5.157390    0.355516   -1.447885
H      5.416872   -0.368920   -2.205634
H      4.227392    2.853252    1.326114
C      3.880829    0.884934   -1.402774
H      3.143067    0.564234   -2.126137
C      1.545154    3.164857   -2.032351
C      0.033560    3.234258   -2.301692
C      2.089036    3.924654    0.712696
C      1.397111    3.958195    1.920674
H      0.693378    3.152085    2.152473
C      1.599597    5.004643    2.803601
H      1.080043    5.024257    3.751793
C      2.469496    6.031922    2.472010
C      3.148742    6.008705    1.263324
H      3.831982    6.807967    1.010127
H      2.631224    6.846979    3.163258
C      2.967810    4.952868    0.388856
H      3.526750    4.913454   -0.537198
C     -2.546214    4.182855   -1.106017
C     -3.258006    3.792281   -2.230841
C     -4.599994    4.121732   -2.338240
H     -5.155122    3.825242   -3.215609
C     -5.237529    4.826322   -1.332023
H     -6.276244    5.104171   -1.435145
C     -4.540308    5.173167   -0.185969
H     -5.037292    5.699125    0.615385
H     -2.774191    3.239462   -3.023851
C     -3.207463    4.841922   -0.070554
H     -2.654655    5.099309    0.823573
C     -0.226985    5.626947   -0.788710
C     -0.192256    6.332753    0.409209
H     -0.508319    5.846079    1.321897
C      0.250073    7.642361    0.445169
H      0.277009    8.178245    1.383177
C      0.675419    8.263136   -0.717171
C      0.618737    7.577920   -1.918480
H      0.931702    8.059553   -2.834162
H      1.040998    9.279677   -0.691772
C      0.168178    6.271602   -1.955605
H      0.112587    5.774658   -2.911415
H     -0.350764    2.212665   -2.448448
H     -0.195463    3.814258   -3.199246
H      2.006278    4.159080   -2.085746
H      2.031844    2.520764   -2.773311
C     -3.469111   -0.639587   -2.573615
C     -4.678437   -1.157941   -2.076748
C     -5.127434   -0.786155   -0.840678
C     -4.366755    0.077528   -0.022430
C     -3.087241    0.510384   -0.474062
C     -2.697114    0.168771   -1.789412
C     -2.255527    1.266345    0.378216
C     -2.775286    1.716111    1.573745
C     -4.055472    1.349687    2.007038
C     -4.817031    0.513180    1.234664
H     -3.154659   -0.891679   -3.579352
H     -5.252200   -1.844379   -2.685955
H     -6.075932   -1.156593   -0.471056
H     -1.771868    0.591230   -2.170930
H     -4.439921    1.681514    2.958500
H     -5.777031    0.179224    1.599546
O     -1.918098    2.544159    2.287517
C     -2.372713    2.995311    3.536203
H     -1.623788    3.690327    3.913213
H     -2.475234    2.168485    4.250357
H     -3.335533    3.512855    3.445123
H      0.233998   -0.328093   -1.809924
C      0.177457   -0.889108   -0.878285
C      0.349285   -2.261817   -0.923482
H      0.492871   -2.760749   -1.874090
C      0.321214   -2.988954    0.252875
H      0.424162   -4.065106    0.223579
C      0.161752   -2.332182    1.460573
H      0.170599   -2.906461    2.379830
C     -0.016331   -0.952693    1.509513
C     -0.044896   -0.222390    0.323095
C     -0.164164   -0.259729    2.837364
H      0.520977   -0.684051    3.572008
H     -1.183031   -0.373698    3.212539
H      0.046256    0.812502    2.726538
88

Pd     0.687010    0.739968    0.391741
P      2.942124    1.376057    0.334793
P      1.787974    4.786767    0.241014
C      4.585775    0.614485    0.082686
C      5.401376    0.386599    1.190794
C      6.674740   -0.126713    1.028975
H      7.307945   -0.279955    1.891129
C      7.146979   -0.435194   -0.236486
H      8.147599   -0.825303   -0.354129
C      6.327038   -0.248778   -1.335543
H      6.688873   -0.500776   -2.320119
H      5.040848    0.628263    2.182560
C      5.051869    0.266128   -1.180079
H      4.422625    0.399800   -2.048483
C      2.805374    2.478443   -1.152075
C      1.611996    3.424654   -1.041930
C      3.409758    2.581573    1.621360
C      2.619035    2.689151    2.758298
H      1.817573    1.969772    2.910888
C      2.854453    3.700083    3.673355
H      2.223156    3.803870    4.541824
C      3.891437    4.593541    3.466541
C      4.725474    4.443727    2.368939
H      5.552426    5.121899    2.221268
H      4.064000    5.400219    4.164457
C      4.493668    3.438495    1.451315
H      5.152742    3.315064    0.600620
C      0.091577    5.478940    0.147831
C     -0.682522    5.545222   -1.005348
C     -1.939424    6.117837   -0.958505
H     -2.534507    6.162158   -1.859202
C     -2.432225    6.638335    0.226250
H     -3.415303    7.084000    0.249842
C     -1.661976    6.584281    1.374168
H     -2.036758    6.996716    2.298003
H     -0.312735    5.155701   -1.943948
C     -0.409611    6.000667    1.335268
H      0.200908    5.940322    2.227871
C      2.668691    6.087982   -0.719657
C      2.121911    7.354554   -0.912190
H      1.114447    7.560438   -0.581278
C      2.855329    8.355749   -1.523008
H      2.416461    9.334290   -1.652563
C      4.145233    8.112418   -1.961027
C      4.703181    6.860942   -1.765857
H      5.709723    6.658601   -2.099973
H      4.713880    8.894728   -2.441123
C      3.980951    5.868714   -1.130561
H      4.450189    4.915766   -0.942527
H      0.710487    2.859060   -0.740606
H      1.414309    3.871001   -2.023317
H      3.728910    3.032656   -1.334513
H      2.625011    1.814756   -2.008372
C     -2.206372   -2.630493   -1.740286
C     -2.945243   -2.217771   -2.857913
C     -3.213476   -0.889868   -3.031235
C     -2.714433    0.075347   -2.134483
C     -1.850902   -0.324697   -1.074181
C     -1.676674   -1.713658   -0.875716
C     -1.259011    0.643098   -0.208668
C     -1.721861    1.944912   -0.328094
C     -2.636098    2.336234   -1.331078
C     -3.078810    1.431179   -2.246884
H     -2.056364   -3.685736   -1.558665
H     -3.308925   -2.956309   -3.558126
H     -3.827130   -0.551191   -3.853522
H     -1.142388   -2.048113    0.001733
H     -2.948226    3.369734   -1.352441
H     -3.754532    1.730655   -3.034617
O     -1.366009    2.982071    0.536128
C     -1.102468    2.629178    1.876885
H     -0.097637    2.160752    1.989744
H     -1.126934    3.564077    2.437053
H     -1.870378    1.942125    2.256447
H      0.351304   -0.676405    3.123469
C      0.671896   -1.440712    2.420982
C      0.846031   -2.744336    2.869548
H      0.667962   -2.986251    3.907930
C      1.217878   -3.735430    1.979269
H      1.319471   -4.757600    2.313162
C      1.443613   -3.419801    0.650184
H      1.710470   -4.198276   -0.053319
C      1.299725   -2.114291    0.194518
C      0.881783   -1.128040    1.088990
C      1.543680   -1.788477   -1.256235
H      1.115230   -2.558705   -1.896816
H      2.617865   -1.732034   -1.452980
H      1.076917   -0.818702   -1.510147
88

Pd    -0.957738    0.672323   -0.101484
P      1.165400    1.557439   -0.234078
P     -1.468782    2.953634    0.095829
C      2.646241    0.669827   -0.837239
C      2.850068   -0.569761   -0.234991
C      3.957151   -1.332712   -0.549061
H      4.098937   -2.296930   -0.083323
C      4.881750   -0.855009   -1.462947
H      5.752977   -1.443384   -1.708978
C      4.689845    0.378887   -2.061935
H      5.415531    0.749272   -2.772304
H      2.114218   -0.932769    0.471564
C      3.577788    1.143487   -1.751905
H      3.443600    2.103532   -2.230351
C      0.796031    2.865655   -1.510593
C     -0.718642    3.106530   -1.602760
C      1.985880    2.523993    1.085323
C      1.641219    2.227798    2.397459
H      0.905771    1.450743    2.578673
C      2.212415    2.924543    3.446645
H      1.942686    2.691823    4.466167
C      3.127898    3.929782    3.188657
C      3.496868    4.209810    1.883438
H      4.228905    4.978736    1.684691
H      3.559275    4.494305    4.002328
C      2.940394    3.502342    0.835293
H      3.258510    3.712683   -0.175301
C     -3.180642    3.560561   -0.039463
C     -3.967106    3.353937   -1.167406
C     -5.307668    3.697452   -1.148853
H     -5.915652    3.517714   -2.023236
C     -5.876065    4.248010   -0.012582
H     -6.920710    4.523100   -0.005874
C     -5.101656    4.442315    1.119314
H     -5.542062    4.857595    2.015412
H     -3.540464    2.908364   -2.054678
C     -3.766236    4.089728    1.109488
H     -3.167377    4.227136    2.000157
C     -0.735505    4.395964    0.950178
C     -0.582023    4.339309    2.330869
H     -0.873599    3.439809    2.857020
C     -0.064380    5.417827    3.023706
H      0.048794    5.370987    4.096638
C      0.314554    6.560457    2.341193
C      0.158744    6.625770    0.967569
H      0.443649    7.518401    0.430598
H      0.724077    7.403767    2.876754
C     -0.370745    5.553302    0.276434
H     -0.511765    5.629994   -0.790358
H     -1.176251    2.297366   -2.194625
H     -0.942352    4.057005   -2.092945
H      1.312535    3.790591   -1.240423
H      1.181952    2.520824   -2.474973
C     -3.753202   -0.192283   -3.957051
C     -5.156314   -0.139868   -3.935271
C     -5.813135    0.075554   -2.756897
C     -5.108210    0.219067   -1.541106
C     -3.684778    0.154144   -1.558670
C     -3.043663   -0.032090   -2.803050
C     -2.934427    0.294350   -0.368818
C     -3.632763    0.538112    0.801038
C     -5.032181    0.621409    0.839740
C     -5.752775    0.455166   -0.314463
H     -3.247519   -0.366214   -4.896450
H     -5.709252   -0.272322   -4.855858
H     -6.894523    0.119073   -2.735297
H     -1.961780   -0.061013   -2.814088
H     -5.555175    0.848901    1.758252
H     -6.831428    0.530478   -0.294542
O     -2.806293    0.772418    1.896622
C     -3.354308    0.721901    3.189239
H     -2.509574    0.762278    3.881367
H     -3.904557   -0.213300    3.346958
H     -4.015136    1.575539    3.385968
H      0.120933   -0.553475   -2.719720
C      0.073841   -1.367086   -1.999791
C      0.537014   -2.613310   -2.389545
H      0.894227   -2.771725   -3.399420
C      0.548019   -3.648985   -1.475309
H      0.899757   -4.626606   -1.771051
C      0.136526   -3.425509   -0.171462
H      0.209938   -4.226745    0.552998
C     -0.340252   -2.181776    0.218571
C     -0.417116   -1.149007   -0.717670
C     -0.754762   -1.907710    1.642153
H     -1.823190   -2.096576    1.762491
H     -0.571045   -0.845890    1.888033
H     -0.212649   -2.541354    2.343371
