88
-3490.8149992958874
Pd    -0.062545    0.834643   -0.056631
P      2.216792    1.075856    0.121983
P     -0.103629    3.159280    0.052016
C      2.883930    0.984808   -1.573257
C      4.208775    0.681966   -1.867624
C      4.622366    0.613521   -3.186834
H      5.651492    0.378899   -3.417939
C      3.722326    0.844376   -4.215038
H      4.040208    0.750223   -5.243286
C      2.412661    1.195114   -3.926461
H      1.717024    1.403791   -4.727346
H      4.911888    0.488910   -1.068652
C      1.995856    1.269148   -2.609556
H      0.961399    1.533540   -2.364748
C      2.631634    2.845824    0.503725
C      1.647546    3.741117   -0.239707
C      3.402086    0.077394    1.069118
C      3.420824   -1.285291    0.767467
H      2.786267   -1.658866   -0.025970
C      4.234598   -2.147030    1.476254
H      4.241763   -3.200633    1.233921
C      5.036154   -1.657439    2.497378
C      5.023174   -0.305713    2.800607
H      5.658524    0.076673    3.588020
H      5.672006   -2.330683    3.054726
C      4.200874    0.560802    2.099132
H      4.195834    1.611584    2.351369
C     -1.112666    4.458254   -0.730474
C     -2.490956    4.274942   -0.619356
C     -3.365792    5.206098   -1.146536
H     -4.433538    5.071712   -1.041010
C     -2.869535    6.320034   -1.808231
H     -3.550210    7.054055   -2.215869
C     -1.502455    6.492450   -1.947234
H     -1.118749    7.363511   -2.460885
H     -2.860419    3.392143   -0.108827
C     -0.622317    5.562909   -1.418165
H      0.440019    5.716657   -1.538042
C     -0.181471    3.648773    1.811113
C     -0.522262    4.928451    2.237320
H     -0.846279    5.670630    1.520293
C     -0.452044    5.252630    3.581567
H     -0.707175    6.250115    3.908662
C     -0.036400    4.310711    4.508913
C      0.321245    3.040053    4.085975
H      0.666057    2.310913    4.805554
H      0.010951    4.566948    5.558447
C      0.246201    2.706356    2.744071
H      0.493070    1.696468    2.409070
H      1.835363    3.690193   -1.316680
H      1.752533    4.778146    0.090078
H      2.516983    2.994518    1.581680
H      3.664633    3.072320    0.225256
C     -2.842838   -0.800264   -3.712480
C     -3.865346   -1.730503   -3.461960
C     -4.355663   -1.890058   -2.196064
C     -3.795274   -1.194323   -1.102978
C     -2.675320   -0.344062   -1.336216
C     -2.278203   -0.114991   -2.674494
C     -2.003668    0.267634   -0.251890
C     -2.598658    0.189759    0.994585
C     -3.740469   -0.585467    1.232370
C     -4.287323   -1.316491    0.209696
H     -2.505146   -0.633728   -4.727389
H     -4.268772   -2.304672   -4.283586
H     -5.182292   -2.562516   -2.010184
H     -1.519238    0.645973   -2.849763
H     -4.149046   -0.656225    2.229676
H     -5.115031   -1.983724    0.405840
O     -1.945181    0.916734    1.983130
C     -2.614231    1.107140    3.199827
H     -2.029302    1.839270    3.753037
H     -2.679519    0.183853    3.784025
H     -3.625635    1.500839    3.054814
H      0.036165   -0.845179    2.316964
C      0.100872   -1.580761    1.512904
C      0.176173   -2.924948    1.838613
H      0.185512   -3.226861    2.876582
C      0.238724   -3.874591    0.833912
H      0.261618   -4.927809    1.074727
C      0.288554   -3.465808   -0.485162
H      0.369524   -4.193583   -1.281436
C      0.253240   -2.117649   -0.819566
C      0.104828   -1.160984    0.185144
C      0.443358   -1.714381   -2.255172
H     -0.223480   -2.266639   -2.913887
H      1.472576   -1.914627   -2.561054
H      0.249182   -0.646940   -2.371923
88

Pd     1.085853   -0.380845    0.021000
P      3.368115   -0.549344   -0.466112
P      1.556563    1.892284   -0.364148
C      4.040015   -2.156450   -1.020059
C      4.795826   -2.343367   -2.171724
C      5.297418   -3.598868   -2.473900
H      5.878379   -3.746364   -3.374817
C      5.063912   -4.666044   -1.623173
H      5.435357   -5.649924   -1.875575
C      4.332827   -4.476497   -0.463143
H      4.162251   -5.302663    0.207600
H      5.001554   -1.521589   -2.844652
C      3.813830   -3.232706   -0.168017
H      3.209500   -3.085302    0.718052
C      3.326426    0.416591   -2.044159
C      2.554250    1.735665   -1.930307
C      4.927069   -0.052767    0.368000
C      5.241142   -0.778301    1.515375
H      4.528027   -1.499044    1.894873
C      6.446249   -0.592431    2.161381
H      6.684533   -1.184873    3.033444
C      7.348895    0.341044    1.678082
C      7.022302    1.098780    0.568119
H      7.720855    1.837857    0.206335
H      8.303821    0.473479    2.166149
C      5.819886    0.904608   -0.089891
H      5.590693    1.507072   -0.955368
C      0.845656    3.565009   -0.600923
C      0.676075    4.175059   -1.839391
C      0.240871    5.487231   -1.919136
H      0.149882    5.965364   -2.884606
C     -0.053424    6.195884   -0.767373
H     -0.370307    7.227539   -0.828147
C      0.057233    5.576546    0.468318
H     -0.182199    6.123077    1.369606
H      0.890205    3.644021   -2.754332
C      0.491159    4.267331    0.550555
H      0.580249    3.779815    1.513900
C      2.845842    2.337639    0.858559
C      3.741847    3.382609    0.664089
H      3.696798    3.972091   -0.241548
C      4.685680    3.676679    1.629464
H      5.387351    4.480062    1.464347
C      4.733097    2.943141    2.803113
C      3.846382    1.898493    3.001713
H      3.892967    1.316948    3.910668
H      5.461460    3.183342    3.562621
C      2.907527    1.591405    2.032776
H      2.207943    0.764099    2.179457
H      1.844959    1.800391   -2.762535
H      3.218399    2.604504   -2.001455
H      4.332616    0.592295   -2.436725
H      2.805407   -0.259373   -2.734823
C     -2.445724   -0.532819   -3.063753
C     -3.808034   -0.625739   -2.731466
C     -4.201997   -0.574478   -1.423961
C     -3.253606   -0.451614   -0.385056
C     -1.871098   -0.417845   -0.720080
C     -1.505605   -0.425445   -2.082909
C     -0.891423   -0.322982    0.283766
C     -1.298621   -0.138002    1.590105
C     -2.659153   -0.141801    1.938046
C     -3.611387   -0.330562    0.968769
H     -2.151431   -0.534393   -4.103455
H     -4.536863   -0.721081   -3.525292
H     -5.252566   -0.611814   -1.167202
H     -0.449633   -0.310936   -2.319623
H     -2.977414   -0.028944    2.965025
H     -4.656473   -0.369539    1.241421
O     -0.258420    0.081422    2.487430
C     -0.598822    0.435509    3.803201
H      0.323831    0.738366    4.298868
H     -1.031507   -0.417827    4.341214
H     -1.305674    1.272448    3.822748
H      1.178306   -1.852859   -2.457703
C      0.909116   -2.634596   -1.745572
C      0.780426   -3.925628   -2.229276
H      0.946758   -4.123377   -3.279182
C      0.450923   -4.951241   -1.362530
H      0.336623   -5.964252   -1.724686
C      0.278691   -4.674116   -0.020102
H      0.025092   -5.482734    0.653467
C      0.447601   -3.385513    0.477697
C      0.746366   -2.337365   -0.392659
C      0.351465   -3.135488    1.957585
H     -0.690664   -3.077749    2.272941
H      0.834470   -2.181936    2.202071
H      0.825955   -3.941451    2.518597
88

Pd    -0.070290   -1.122286    0.227162
P      4.240411    1.809642    0.272584
P      1.917337    4.789082    0.380848
C      3.210354    0.290470    0.400010
C      3.525452   -0.936609   -0.190101
C      2.869026   -2.087356    0.213426
H      3.170105   -3.050654   -0.179296
C      1.871418   -2.040106    1.193484
H      1.500180   -2.963796    1.631791
C      1.519628   -0.801751    1.768394
H      0.873245   -0.774357    2.651658
H      4.313960   -0.988044   -0.931034
C      2.207396    0.346288    1.367470
H      2.032113    1.288436    1.871674
C      3.409167    2.747653   -1.102541
C      2.029351    3.278876   -0.729794
C      5.755413    1.213726   -0.566338
C      6.594050    0.459692    0.256575
H      6.221385    0.142500    1.223353
C      7.879032    0.144316   -0.135503
H      8.519679   -0.421459    0.523970
C      8.358027    0.582428   -1.360420
C      7.532210    1.319203   -2.190332
H      7.903804    1.666951   -3.143727
H      9.375549    0.365757   -1.653580
C      6.239116    1.633829   -1.801810
H      5.621725    2.208506   -2.476406
C      2.901406    6.044785   -0.518231
C      3.072755    6.082841   -1.897289
C      3.748820    7.138939   -2.485129
H      3.888175    7.151492   -3.556170
C      4.252676    8.168924   -1.711103
H      4.783114    8.985802   -2.175657
C      4.068073    8.150003   -0.338359
H      4.461301    8.949383    0.271448
H      2.680590    5.292039   -2.521376
C      3.385312    7.105254    0.249158
H      3.234252    7.091514    1.320506
C      3.137080    4.312264    1.670305
C      4.504011    4.564797    1.609627
H      4.920320    5.155328    0.806392
C      5.347448    4.033967    2.567533
H      6.409869    4.215560    2.497929
C      4.841228    3.242747    3.585444
C      3.477320    3.028798    3.681062
H      3.071072    2.430198    4.483524
H      5.509302    2.791897    4.302812
C      2.629989    3.577615    2.737127
H      1.559785    3.431464    2.814686
H      1.442521    2.489695   -0.245810
H      1.477759    3.562855   -1.636214
H      4.082071    3.576184   -1.350193
H      3.312737    2.091034   -1.975186
C     -4.017881   -3.158510   -2.102163
C     -5.306660   -2.676677   -1.823544
C     -5.458839   -1.453350   -1.238038
C     -4.337620   -0.700449   -0.822817
C     -3.030262   -1.248464   -0.980099
C     -2.916585   -2.454606   -1.710154
C     -1.910451   -0.587243   -0.419228
C     -2.117980    0.657414    0.158508
C     -3.384710    1.255006    0.228396
C     -4.476114    0.561471   -0.220233
H     -3.913880   -4.096248   -2.629707
H     -6.171611   -3.268606   -2.088773
H     -6.446917   -1.049065   -1.060566
H     -1.932580   -2.815916   -1.956954
H     -3.511629    2.225725    0.684443
H     -5.465074    0.977293   -0.102689
O     -0.968777    1.269641    0.672386
C     -1.073188    2.627509    1.032555
H     -0.069798    2.962503    1.296996
H     -1.735590    2.778820    1.892743
H     -1.437222    3.236869    0.196720
H     -1.778767   -2.507280    2.164395
C     -1.446125   -3.305112    1.502647
C     -1.739068   -4.625055    1.810957
H     -2.274115   -4.863332    2.718910
C     -1.335869   -5.631765    0.952327
H     -1.569557   -6.660707    1.178955
C     -0.628922   -5.323924   -0.196336
H     -0.323257   -6.116195   -0.865036
C     -0.300327   -4.007491   -0.500206
C     -0.728332   -2.997877    0.357865
C      0.509033   -3.680568   -1.728107
H     -0.011055   -3.991414   -2.634312
H      1.465755   -4.199581   -1.698395
H      0.698803   -2.593855   -1.779796
88

Pd    -0.236355    1.836681   -0.193328
P      1.792133    2.735740   -0.807092
P     -0.777638    4.136211   -0.157782
C      3.408241    2.129891   -1.398706
C      4.024687    2.497525   -2.588659
C      5.246126    1.949912   -2.940401
H      5.730392    2.262373   -3.854186
C      5.854810    1.018527   -2.119239
H      6.802211    0.586724   -2.401865
C      5.249401    0.648708   -0.928892
H      5.731392   -0.064003   -0.277645
H      3.569194    3.217997   -3.251302
C      4.037152    1.201298   -0.569862
H      3.559504    0.921859    0.360279
C      1.395714    4.169622   -1.921039
C     -0.101456    4.493871   -1.841575
C      2.316781    3.494078    0.773918
C      1.689339    3.024327    1.926285
H      0.924831    2.241388    1.834685
C      2.008885    3.552284    3.162571
H      1.521958    3.179154    4.051898
C      2.947199    4.566593    3.254375
C      3.582621    5.029670    2.114556
H      4.312582    5.822390    2.188370
H      3.186488    4.996369    4.215495
C      3.288113    4.480947    0.879625
H      3.814069    4.820781   -0.001641
C     -2.510165    4.712688   -0.125513
C     -3.235041    4.272800    0.979554
C     -4.511178    4.743166    1.221848
H     -5.052704    4.403680    2.094085
C     -5.074217    5.668829    0.358149
H     -6.057387    6.069613    0.558393
C     -4.378378    6.072428   -0.769601
H     -4.823849    6.788749   -1.445331
H     -2.783436    3.554166    1.653430
C     -3.100536    5.598360   -1.015772
H     -2.564878    5.928445   -1.893266
C     -0.120829    5.553380    0.820707
C      0.546641    6.630511    0.252065
H      0.725320    6.676958   -0.809602
C      1.004468    7.673851    1.035584
H      1.525114    8.493232    0.559933
C      0.787041    7.668439    2.401858
C      0.105373    6.608449    2.979455
H     -0.076741    6.595515    4.045206
H      1.151488    8.483187    3.010759
C     -0.346347    5.563321    2.194897
H     -0.874698    4.735347    2.649446
H     -0.645116    3.801047   -2.490279
H     -0.304560    5.514616   -2.172735
H      2.026474    5.023970   -1.657374
H      1.644118    3.867193   -2.944739
C     -2.205277   -1.004527    3.161934
C     -3.467401   -1.604415    3.026284
C     -4.297962   -1.227345    2.010111
C     -3.893657   -0.274123    1.052531
C     -2.585929    0.280521    1.143597
C     -1.789587   -0.073315    2.254941
C     -2.094290    1.124645    0.124267
C     -2.970918    1.490035   -0.882429
C     -4.299662    1.043451   -0.924854
C     -4.738127    0.141442    0.007386
H     -1.562545   -1.293919    3.980356
H     -3.780581   -2.354268    3.737482
H     -5.279695   -1.669509    1.912556
H     -0.825517    0.415788    2.356856
H     -4.975116    1.389074   -1.692799
H     -5.743989   -0.252095   -0.049383
O     -2.426153    2.332077   -1.857056
C     -3.172971    2.527890   -3.030948
H     -2.513287    3.016776   -3.749543
H     -4.044050    3.168240   -2.850089
H     -3.505140    1.574415   -3.457046
H      1.112816   -0.284572    1.628952
C      1.109816   -0.684368    0.617865
C      1.809559   -1.860698    0.396370
H      2.328249   -2.337774    1.217143
C      1.845991   -2.415311   -0.868325
H      2.381343   -3.338329   -1.044403
C      1.209705   -1.768165   -1.912620
H      1.255464   -2.194255   -2.906421
C      0.522419   -0.580436   -1.702462
C      0.434212   -0.041841   -0.415170
C     -0.076512    0.175780   -2.857765
H     -0.307668   -0.476631   -3.698369
H      0.637922    0.938317   -3.195666
H     -0.991388    0.676202   -2.533283
88

Pd    -0.134696    1.563451    0.161764
P      2.064085    2.081321   -0.168488
P     -0.352380    3.730730   -0.752710
C      3.528048    0.993621   -0.100212
C      4.658876    1.097673   -0.898798
C      5.727931    0.243696   -0.689446
H      6.607306    0.322727   -1.312497
C      5.674962   -0.710970    0.312859
H      6.510389   -1.377734    0.464901
C      4.550846   -0.815891    1.115797
H      4.503619   -1.563324    1.894692
H      4.708374    1.838592   -1.683963
C      3.482762    0.035111    0.909966
H      2.588972   -0.045664    1.517890
C      2.001920    2.817630   -1.881906
C      0.528069    3.054750   -2.255447
C      2.684398    3.435864    0.883447
C      2.060690    3.572866    2.119305
H      1.220492    2.916995    2.355542
C      2.495685    4.537324    3.010124
H      2.019560    4.638303    3.975290
C      3.540277    5.376701    2.657551
C      4.169700    5.234688    1.431254
H      4.992996    5.880058    1.161830
H      3.869010    6.145870    3.339726
C      3.754695    4.255016    0.549864
H      4.264846    4.124182   -0.394072
C     -2.005602    4.246333   -1.306350
C     -2.575528    5.364762   -0.701099
C     -3.881041    5.722138   -0.978668
H     -4.313196    6.592614   -0.502131
C     -4.630457    4.963239   -1.863288
H     -5.642860    5.257414   -2.099097
C     -4.086157    3.823667   -2.434143
H     -4.686342    3.210955   -3.093305
H     -1.993028    5.952211   -0.003054
C     -2.780725    3.459689   -2.153618
H     -2.376684    2.547712   -2.573290
C      0.427977    5.386847   -0.638453
C      0.825184    6.105175   -1.759475
H      0.657740    5.704581   -2.748401
C      1.421398    7.343700   -1.616661
H      1.729030    7.889493   -2.496953
C      1.610042    7.885113   -0.355821
C      1.186266    7.189754    0.763914
H      1.315327    7.618235    1.746698
H      2.080608    8.851480   -0.252595
C      0.593680    5.948940    0.621645
H      0.254967    5.397923    1.488573
H      0.047722    2.083777   -2.459844
H      0.429279    3.677815   -3.149822
H      2.557359    3.760187   -1.905137
H      2.467210    2.125616   -2.592096
C     -3.449615   -1.188940   -2.205580
C     -4.831410   -1.098246   -1.972830
C     -5.309159   -0.166492   -1.098494
C     -4.431728    0.686954   -0.396900
C     -3.024156    0.540196   -0.556197
C     -2.575946   -0.396010   -1.517568
C     -2.136040    1.325270    0.217626
C     -2.687861    2.271638    1.065032
C     -4.068238    2.482104    1.172090
C     -4.920094    1.685045    0.459577
H     -3.078607   -1.906228   -2.924561
H     -5.502184   -1.767740   -2.492031
H     -6.371909   -0.076272   -0.917490
H     -1.509978   -0.472814   -1.694906
H     -4.474486    3.267951    1.789857
H     -5.986987    1.820284    0.548425
O     -1.744081    3.034522    1.750443
C     -2.210946    3.833271    2.802428
H     -1.335111    4.236026    3.311229
H     -2.791816    3.236160    3.511414
H     -2.828287    4.660705    2.436670
H      0.998439   -0.345062   -1.758123
C      0.824258   -0.956188   -0.868513
C      1.251593   -2.271503   -0.867864
H      1.754902   -2.672953   -1.734844
C      1.052311   -3.053058    0.254903
H      1.383675   -4.079966    0.262465
C      0.454906   -2.512202    1.379516
H      0.312371   -3.124173    2.260218
C      0.053021   -1.182243    1.398545
C      0.208959   -0.405484    0.252954
C     -0.516763   -0.544690    2.638368
H     -1.596110   -0.701963    2.687993
H     -0.329774    0.541410    2.606132
H     -0.064005   -0.958730    3.538219
