88
-30.660030
Pd         1.24244       -0.47176        0.00636
P          3.44840       -0.78873       -0.68105
P          1.72997        1.75038       -0.49567
C          4.09591       -2.33088       -1.41200
C          5.35064       -2.38255       -2.01172
C          5.80365       -3.56635       -2.56034
H          6.77622       -3.60480       -3.02995
C          5.01549       -4.70555       -2.50562
H          5.37632       -5.62922       -2.93383
C          3.77224       -4.66035       -1.89962
H          3.15843       -5.54712       -1.84831
H          5.97458       -1.49905       -2.03502
C          3.31243       -3.47546       -1.35336
H          2.33903       -3.42727       -0.88157
C          3.38674        0.26305       -2.21320
C          2.86403        1.68497       -1.97415
C          4.94663       -0.23774        0.20646
C          5.25486       -0.95745        1.36117
H          4.63800       -1.80669        1.62781
C          6.33078       -0.60034        2.14868
H          6.56114       -1.16569        3.04032
C          7.11245        0.48880        1.79583
C          6.81684        1.20528        0.64960
H          7.42786        2.05108        0.36885
H          7.95147        0.77669        2.41186
C          5.74009        0.84714       -0.14322
H          5.52966        1.41790       -1.03496
C          0.70233        3.20299       -0.87018
C         -0.12912        3.12779       -1.98549
C         -1.02136        4.14270       -2.26114
H         -1.65992        4.07662       -3.12960
C         -1.10687        5.23701       -1.41553
H         -1.80749        6.03097       -1.62806
C         -0.30533        5.30354       -0.28869
H         -0.38307        6.14902        0.37985
H         -0.08352        2.25611       -2.62595
C          0.59002        4.28818       -0.00819
H          1.20425        4.33665        0.88039
C          2.85550        2.32448        0.81561
C          3.74886        3.38373        0.68970
H          3.76029        3.98290       -0.21151
C          4.61619        3.67817        1.72515
H          5.31320        4.49808        1.62556
C          4.59854        2.92350        2.88717
C          3.69341        1.88433        3.02844
H          3.67301        1.30460        3.93969
H          5.28856        3.15192        3.68616
C          2.82111        1.58902        1.99689
H          2.08635        0.78579        2.09020
H          2.31011        2.03507       -2.85052
H          3.68747        2.38269       -1.80160
H          4.35428        0.27094       -2.72509
H          2.67987       -0.27968       -2.85680
C         -1.60877       -0.09172       -3.30550
C         -2.94864        0.32054       -3.20025
C         -3.52731        0.47315       -1.97204
C         -2.80260        0.21299       -0.78993
C         -1.46275       -0.25523       -0.89248
C         -0.88547       -0.37710       -2.18203
C         -0.71425       -0.52614        0.27913
C         -1.24331       -0.14906        1.49551
C         -2.55983        0.31714        1.61173
C         -3.33416        0.45895        0.48945
H         -1.15755       -0.17811       -4.28502
H         -3.51106        0.52716       -4.09963
H         -4.55136        0.81062       -1.88579
H          0.16578       -0.68985       -2.26338
H         -2.96858        0.57878        2.57617
H         -4.35178        0.81102        0.57669
O         -0.34619       -0.22053        2.54298
C         -0.76816        0.20135        3.81161
H          0.10355        0.13092        4.46264
H         -1.56396       -0.44033        4.20788
H         -1.11543        1.24080        3.79719
H         -0.67896       -2.67272       -1.46546
C         -0.27425       -3.10639       -0.55895
C         -0.49381       -4.45789       -0.34958
H         -1.02938       -5.03308       -1.09243
C         -0.03794       -5.06244        0.80581
H         -0.21836       -6.11212        0.98863
C          0.66989       -4.30508        1.71848
H          1.06239       -4.77553        2.61080
C          0.91578       -2.95317        1.51242
C          0.41204       -2.31128        0.36403
C          1.79331       -2.24932        2.51307
H          1.21175       -1.90286        3.36512
H          2.28826       -1.38984        2.04010
H          2.55711       -2.93405        2.88310
88
-30.658068
Pd         0.08689        0.53090       -0.13240
P          2.46682        0.99302        0.09075
P         -0.00174        2.88424       -0.15176
C          3.18565        1.01413       -1.58198
C          4.53888        1.21106       -1.83387
C          4.99543        1.24235       -3.13897
H          6.04713        1.39087       -3.33699
C          4.10984        1.08436       -4.19368
H          4.47458        1.11108       -5.21017
C          2.76084        0.88563       -3.94701
H          2.07209        0.75799       -4.76978
H          5.22919        1.32708       -1.00943
C          2.30426        0.84739       -2.64306
H          1.24795        0.68051       -2.41810
C          2.66073        2.79194        0.52100
C          1.69266        3.62023       -0.31738
C          3.79059        0.18510        1.03808
C          4.10629       -1.11304        0.63967
H          3.60572       -1.53011       -0.22570
C          5.03227       -1.85581        1.34088
H          5.27535       -2.85819        1.02070
C          5.64259       -1.31706        2.46351
C          5.31396       -0.03933        2.88095
H          5.78041        0.37678        3.76275
H          6.36648       -1.89692        3.01694
C          4.38633        0.70991        2.17859
H          4.13254        1.70257        2.52127
C         -1.09174        3.96908       -1.11252
C         -2.45573        3.81151       -0.86493
C         -3.38772        4.48698       -1.62521
H         -4.44179        4.35930       -1.42598
C         -2.96852        5.31868       -2.65292
H         -3.69558        5.84545       -3.25320
C         -1.61797        5.46445       -2.91650
H         -1.29212        6.10593       -3.72265
H         -2.77016        3.14228       -0.07240
C         -0.67915        4.78704       -2.15734
H          0.37235        4.89936       -2.37905
C         -0.37367        3.39260        1.55585
C         -0.68670        4.70118        1.90636
H         -0.75757        5.46159        1.14003
C         -0.92135        5.01892        3.23188
H         -1.17121        6.03420        3.50540
C         -0.83749        4.04037        4.20993
C         -0.52052        2.73674        3.86420
H         -0.45744        1.97361        4.62635
H         -1.02332        4.29611        5.24304
C         -0.29108        2.41434        2.53929
H         -0.06127        1.39043        2.24046
H          1.98359        3.56412       -1.37201
H          1.68580        4.66895       -0.00287
H          2.41534        2.91061        1.58218
H          3.69745        3.10258        0.35544
C         -2.53026        0.87988       -3.35086
C         -3.91120        1.12041       -3.28904
C         -4.59043        0.87601       -2.13164
C         -3.92471        0.41648       -0.97491
C         -2.52081        0.19148       -1.02066
C         -1.85819        0.41684       -2.25581
C         -1.81160       -0.20340        0.16035
C         -2.52985       -0.26506        1.35651
C         -3.92253       -0.09583        1.37647
C         -4.60773        0.22680        0.23725
H         -2.00334        1.05070       -4.27870
H         -4.42765        1.48902       -4.16349
H         -5.65680        1.04666       -2.07326
H         -0.78454        0.19903       -2.32592
H         -4.46360       -0.19667        2.30428
H         -5.67702        0.37434        0.26900
O         -1.80846       -0.48264        2.50638
C         -2.48302       -0.69311        3.71549
H         -1.70694       -0.91620        4.44739
H         -3.17042       -1.54371        3.65831
H         -3.03247        0.19958        4.03679
H          0.52981       -0.66380        2.20822
C          0.39978       -1.53357        1.56691
C          0.96779       -2.71813        1.99221
H          1.51824       -2.74428        2.92286
C          0.84747       -3.85938        1.21690
H          1.28895       -4.79317        1.53494
C          0.15426       -3.78315        0.02762
H          0.04876       -4.67013       -0.58334
C         -0.41710       -2.59737       -0.43028
C         -0.29382       -1.43211        0.34436
C         -1.13930       -2.69037       -1.74786
H         -1.68466       -3.63223       -1.79990
H         -0.42133       -2.67748       -2.57007
H         -1.84775       -1.88342       -1.89430
88
-30.645704
Pd         0.93832       -0.84891        0.68294
P          4.23899        1.48683        0.55503
P          0.80680        2.84996       -0.63193
C          3.65812       -0.23498        0.87554
C          3.88278       -1.28243       -0.02293
C          3.35520       -2.54091        0.22558
H          3.54470       -3.35039       -0.46589
C          2.59576       -2.77322        1.37032
H          2.19482       -3.76186        1.56097
C          2.41655       -1.75441        2.30956
H          1.91491       -1.96207        3.25094
H          4.48110       -1.11345       -0.90907
C          2.94567       -0.48413        2.05704
H          2.86494        0.30400        2.79883
C          3.43180        1.71312       -1.12643
C          1.92911        1.45909       -1.16092
C          5.93702        1.09857       -0.01286
C          6.68776        0.13572        0.65692
H          6.23353       -0.43238        1.45809
C          8.00092       -0.10461        0.29957
H          8.56817       -0.86405        0.81838
C          8.59015        0.62778       -0.71834
C          7.86188        1.61136       -1.36620
H          8.32126        2.19620       -2.15027
H          9.61577        0.43855       -0.99911
C          6.54733        1.85267       -1.01065
H          5.99299        2.63301       -1.51243
C          1.19804        4.17192       -1.83136
C          1.77806        3.97272       -3.07781
C          1.94136        5.03539       -3.94986
H          2.40321        4.86999       -4.91310
C          1.51540        6.30373       -3.59686
H          1.64739        7.12997       -4.27997
C          0.90761        6.50664       -2.36802
H          0.55913        7.49163       -2.09259
H          2.10394        2.98897       -3.38157
C          0.74213        5.44740       -1.49892
H          0.26031        5.59601       -0.54104
C          1.80036        3.38741        0.81333
C          2.73161        4.41848        0.81601
H          2.90367        5.00109       -0.07805
C          3.44347        4.70393        1.96830
H          4.17565        5.49875        1.96066
C          3.22367        3.97897        3.12682
C          2.28689        2.95869        3.13405
H          2.10643        2.39944        4.04237
H          3.78007        4.21029        4.02348
C          1.58305        2.66187        1.98172
H          0.85307        1.85901        1.96714
H          1.64035        0.60107       -0.49564
H          1.60946        1.18569       -2.17345
H          3.64253        2.74489       -1.42574
H          3.93539        1.04188       -1.83240
C         -1.90950        1.01083       -2.82292
C         -2.81491        2.04688       -2.54550
C         -3.10109        2.37053       -1.25120
C         -2.48651        1.69502       -0.17618
C         -1.54816        0.65741       -0.45185
C         -1.30231        0.33311       -1.80563
C         -0.90126       -0.00124        0.61326
C         -1.16888        0.40431        1.91338
C         -2.11657        1.40233        2.18940
C         -2.75706        2.03458        1.15894
H         -1.70033        0.75245       -3.85151
H         -3.28293        2.57910       -3.36095
H         -3.80404        3.16023       -1.02497
H         -0.61260       -0.46930       -2.01512
H         -2.31772        1.70319        3.20626
H         -3.46580        2.82300        1.36694
O         -0.42331       -0.22345        2.90198
C         -0.76896       -0.00082        4.24525
H         -0.14265       -0.67097        4.83464
H         -1.82180       -0.23621        4.43690
H         -0.56874        1.03337        4.55036
H         -1.51096       -2.27833        2.16772
C         -1.23527       -2.84974        1.29148
C         -1.71917       -4.14310        1.17193
H         -2.33528       -4.55950        1.95644
C         -1.40744       -4.89650        0.05538
H         -1.77507       -5.90753       -0.04469
C         -0.60713       -4.34732       -0.92776
H         -0.34410       -4.93622       -1.79673
C         -0.10490       -3.05360       -0.81963
C         -0.44738       -2.28105        0.29834
C          0.79074       -2.56423       -1.93342
H          0.21048       -2.40713       -2.84439
H          1.54987       -3.31393       -2.15729
H          1.29463       -1.62596       -1.65880
