84
-29.172477
Pd       1.099421       0.631358       0.527514
H        8.564754       0.533821      -0.045014
C        7.714421      -0.100186      -0.250874
C        7.898047      -1.323180      -0.872155
H        8.888234      -1.649795      -1.152312
C        6.802145      -2.127164      -1.134402
H        6.917882      -3.083935      -1.621050
C        5.538460      -1.694700      -0.777033
C        5.330279      -0.458443      -0.167407
C        6.444775       0.328818       0.094394
H        6.339208       1.297367       0.559146
P        3.568895       0.032825       0.064253
S        4.133218      -2.733373      -1.127006
C        3.830634      -3.337470       0.562265
H        3.671480      -2.488327       1.225263
H        2.938112      -3.953195       0.522811
H        4.681866      -3.925552       0.892460
C        3.492055       1.372458      -1.293665
C        3.714292       2.702074      -0.576129
C        3.049202       2.544282       0.781811
C        3.689710       1.307026       1.437631
C        4.372370       1.003525      -2.445498
C        5.603898       1.599257      -2.689094
H        5.944971       2.425849      -2.084650
C        6.416505       1.147745      -3.714682
H        7.371801       1.623427      -3.884838
C        6.016931       0.091728      -4.512390
H        6.658527      -0.264329      -5.304729
C        4.786150      -0.502073      -4.288080
H        4.459685      -1.325954      -4.904949
C        3.973781      -0.047461      -3.268068
H        3.019483      -0.523324      -3.094734
C        2.962494       0.939516       2.710943
C        3.178914       1.740984       3.829973
H        3.868178       2.572123       3.761371
C        2.534495       1.489820       5.026868
H        2.724255       2.122413       5.882366
C        1.644066       0.433217       5.125721
H        1.131812       0.239821       6.057077
C        1.424335      -0.378642       4.027661
H        0.745291      -1.216636       4.097622
C        2.085061      -0.139556       2.828915
H        1.957944      -0.867758       2.021276
H        2.434377       1.351265      -1.628594
H        3.286565       3.526390      -1.151899
H        4.776176       2.906139      -0.425124
H        1.958340       2.345018       0.642043
H        3.164486       3.435106       1.404795
H        4.732415       1.524761       1.701044
C       -2.167253       1.031501      -3.376802
C       -3.071315       2.101757      -3.432526
C       -3.205378       2.921703      -2.350096
C       -2.447192       2.717191      -1.177724
C       -1.516539       1.635976      -1.115064
C       -1.419614       0.809532      -2.255730
C       -0.755837       1.434508       0.064622
C       -0.945252       2.307489       1.135925
C       -1.868761       3.361354       1.068922
C       -2.599941       3.562876      -0.067871
H       -2.065227       0.377895      -4.231381
H       -3.654486       2.268247      -4.326699
H       -3.900804       3.749467      -2.368594
H       -0.736288      -0.016516      -2.231452
H       -1.993810       4.031689       1.904981
H       -3.301990       4.382157      -0.122341
O       -0.179928       2.074852       2.268441
C       -0.470855       2.799444       3.435440
H        0.173009       2.385669       4.210391
H       -1.518739       2.680020       3.734102
H       -0.246354       3.866214       3.317216
H       -1.582498       0.070628       2.194650
C       -1.368418      -0.758883       1.534966
C       -1.983309      -1.970937       1.798395
H       -2.637757      -2.064806       2.653390
C       -1.749018      -3.057087       0.974785
H       -2.215234      -4.010493       1.176268
C       -0.890931      -2.914089      -0.096707
H       -0.676002      -3.764687      -0.729674
C       -0.262417      -1.703571      -0.380263
C       -0.532120      -0.588820       0.430979
C        0.706063      -1.690260      -1.536700
H        1.456717      -2.468109      -1.395626
H        1.221378      -0.724121      -1.599862
H        0.198402      -1.901269      -2.478912
84
-29.172506
Pd       1.099858       0.630109       0.527641
H        8.564687       0.534242      -0.049177
C        7.714220      -0.099698      -0.254318
C        7.897452      -1.322393      -0.875258
H        8.887426      -1.648822      -1.155934
C        6.802095      -2.126273      -1.136520
H        6.917949      -3.083003      -1.622929
C        5.538925      -1.694338      -0.778693
C        5.330593      -0.458098      -0.169428
C        6.444967       0.329394       0.091573
H        6.339551       1.298169       0.555896
P        3.569225       0.032865       0.062918
S        4.134002      -2.733926      -1.127124
C        3.833340      -3.337806       0.562607
H        3.674706      -2.488599       1.225635
H        2.940942      -3.953759       0.524229
H        4.685058      -3.925628       0.891999
C        3.492179       1.372661      -1.295057
C        3.713154       2.702551      -0.577101
C        3.048191       2.544015       0.780878
C        3.689978       1.307154       1.436395
C        4.373738       1.004481      -2.446248
C        5.604537       1.601587      -2.689195
H        5.944204       2.428832      -2.084909
C        6.418240       1.150691      -3.713863
H        7.373032       1.627517      -3.883516
C        6.020491       0.093698      -4.511469
H        6.663064      -0.261950      -5.303193
C        4.790466      -0.501447      -4.287814
H        4.465444      -1.325998      -4.904519
C        3.976985      -0.047454      -3.268772
H        3.023157      -0.524401      -3.095929
C        2.963202       0.938755       2.709767
C        3.179337       1.739895       3.829485
H        3.868518       2.571248       3.761690
C        2.534631       1.487913       5.026003
H        2.724034       2.120125       5.881892
C        1.644024       0.430592       5.124016
H        1.131592       0.236460       6.055108
C        1.424732      -0.380678       4.025486
H        0.745995      -1.218861       4.094969
C        2.085421      -0.140831       2.827095
H        1.958087      -0.868359       2.018835
H        2.434867       1.350561      -1.630951
H        3.284732       3.526718      -1.152597
H        4.774911       2.907316      -0.426168
H        1.957677       2.343800       0.640813
H        3.162222       3.434772       1.404224
H        4.732661       1.525804       1.699225
C       -2.160273       1.035727      -3.380413
C       -3.068203       2.102849      -3.434072
C       -3.205884       2.919706      -2.350067
C       -2.448190       2.714885      -1.177455
C       -1.514771       1.635843      -1.115949
C       -1.413114       0.813142      -2.259100
C       -0.755203       1.433252       0.064738
C       -0.945758       2.305512       1.136422
C       -1.871298       3.357563       1.070325
C       -2.603667       3.558326      -0.066349
H       -2.054744       0.385149      -4.236838
H       -3.651071       2.269594      -4.328294
H       -3.903723       3.745539      -2.367462
H       -0.725942      -0.009887      -2.236770
H       -1.997498       4.026969       1.906932
H       -3.308125       4.375718      -0.119714
O       -0.178640       2.074933       2.267714
C       -0.470215       2.798859       3.434867
H        0.174956       2.386395       4.209347
H       -1.517613       2.677332       3.734202
H       -0.247978       3.866066       3.316482
H       -1.582032       0.074393       2.198362
C       -1.370708      -0.755872       1.538758
C       -1.989443      -1.965642       1.802259
H       -2.644638      -2.057249       2.656998
C       -1.758590      -3.052615       0.978596
H       -2.228715      -4.004273       1.179543
C       -0.898690      -2.912739      -0.092366
H       -0.685816      -3.764162      -0.724906
C       -0.266030      -1.704777      -0.375507
C       -0.533267      -0.588938       0.434805
C        0.704736      -1.695435      -1.529932
H        1.453178      -2.475012      -1.386257
H        1.222750      -0.730630      -1.593381
H        0.198420      -1.906526      -2.472915
84
-29.172543
Pd       1.101743       0.627547       0.529623
H        8.564748       0.537661      -0.054771
C        7.714526      -0.096835      -0.259046
C        7.897883      -1.319326      -0.879989
H        8.887768      -1.645101      -1.161640
C        6.802959      -2.123882      -1.139995
H        6.918943      -3.080607      -1.626344
C        5.540053      -1.692780      -0.780984
C        5.331725      -0.456759      -0.171911
C        6.445556       0.331404       0.087915
H        6.339799       1.300230       0.551978
P        3.570446       0.033269       0.061992
S        4.135351      -2.733462      -1.127144
C        3.837896      -3.336808       0.563397
H        3.680134      -2.487405       1.226387
H        2.945733      -3.953212       0.526908
H        4.690441      -3.924143       0.891526
C        3.491123       1.373040      -1.296028
C        3.709949       2.703106      -0.577884
C        3.046091       2.543170       0.780488
C        3.690605       1.307421       1.435278
C        4.373287       1.006285      -2.447067
C        5.602787       1.605188      -2.691382
H        5.941465       2.433589      -2.088129
C        6.416541       1.154705      -3.716112
H        7.370395       1.632998      -3.886839
C        6.020135       0.096298      -4.512418
H        6.662826      -0.259014      -5.304185
C        4.791314      -0.500712      -4.287441
H        4.467271      -1.326408      -4.903113
C        3.977828      -0.047080      -3.268383
H        3.024779      -0.525409      -3.094384
C        2.964405       0.937151       2.708377
C        3.180002       1.737801       3.828523
H        3.868911       2.569418       3.761128
C        2.535205       1.485055       5.024941
H        2.724146       2.116899       5.881229
C        1.644978       0.427378       5.122163
H        1.132402       0.232458       6.053036
C        1.426169      -0.383401       4.022969
H        0.747667      -1.221879       4.092122
C        2.086842      -0.142875       2.824539
H        1.959167      -0.869545       2.015469
H        2.434082       1.348820      -1.632422
H        3.279585       3.526715      -1.152690
H        4.771531       2.909480      -0.427891
H        1.955859       2.340637       0.640463
H        3.157994       3.433769       1.404410
H        4.733129       1.527931       1.697115
C       -2.144793       1.036112      -3.382828
C       -3.056519       2.100069      -3.436746
C       -3.199793       2.914966      -2.352095
C       -2.444496       2.710987      -1.177723
C       -1.508674       1.634371      -1.115568
C       -1.400042       0.814081      -2.259780
C       -0.752138       1.431348       0.066558
C       -0.944656       2.302780       1.138388
C       -1.872219       3.353162       1.071595
C       -2.604110       3.552792      -0.065924
H       -2.034346       0.387810      -4.240368
H       -3.637621       2.266248      -4.332235
H       -3.900044       3.738694      -2.370375
H       -0.708877      -0.005798      -2.237041
H       -2.000762       4.021979       1.908338
H       -3.310669       4.368346      -0.119503
O       -0.176933       2.074039       2.269601
C       -0.470242       2.797361       3.436742
H        0.175441       2.386108       4.211458
H       -1.517481       2.673930       3.735799
H       -0.250002       3.864972       3.318334
H       -1.584366       0.078916       2.203970
C       -1.376014      -0.751453       1.543744
C       -2.001035      -1.958348       1.805327
H       -2.658127      -2.047171       2.658880
C       -1.774563      -3.045757       0.981183
H       -2.250328      -3.994985       1.180301
C       -0.912021      -2.909601      -0.087878
H       -0.702460      -3.761752      -0.720572
C       -0.272512      -1.704698      -0.369091
C       -0.535710      -0.587887       0.441509
C        0.700635      -1.700185      -1.521545
H        1.444862      -2.483521      -1.376309
H        1.224109      -0.738174      -1.584245
H        0.195028      -1.908919      -2.465390
