84
-29.188153
Pd       1.036706       1.160375       1.535701
H        7.823997      -0.022044      -1.382372
C        6.900854      -0.243697      -0.867886
C        6.832341      -1.303505       0.021073
H        7.700537      -1.916391       0.209124
C        5.639897      -1.576042       0.663968
H        5.564124      -2.396131       1.361559
C        4.511223      -0.802105       0.423772
C        4.575545       0.284222      -0.453148
C        5.786029       0.542582      -1.089352
H        5.863683       1.374610      -1.769230
P        3.125127       1.396882      -0.656685
S        3.054882      -1.259323       1.345291
C        1.858168      -1.607200       0.007358
H        1.192534      -0.750644      -0.116157
H        2.410002      -1.819603      -0.902906
H        1.289129      -2.481673       0.309789
C        3.344258       2.148203      -2.385360
C        4.042669       3.502012      -2.211109
C        3.577051       4.059373      -0.869723
C        3.851157       2.959379       0.146962
C        3.916649       1.200675      -3.395602
C        4.869568       1.582274      -4.331733
H        5.228619       2.601018      -4.361855
C        5.369311       0.665997      -5.241522
H        6.113418       0.980277      -5.959285
C        4.922892      -0.642976      -5.235943
H        5.319196      -1.356167      -5.942633
C        3.960678      -1.030916      -4.318406
H        3.599305      -2.048374      -4.307879
C        3.464525      -0.115352      -3.412359
H        2.712576      -0.418563      -2.695154
C        3.203205       3.036981       1.495298
C        3.590876       2.075070       2.433090
H        4.455942       1.456077       2.232151
C        2.869156       1.884861       3.604255
H        3.177243       1.122518       4.307512
C        1.755649       2.681129       3.870700
H        1.183246       2.538122       4.778882
C        1.411138       3.690874       2.979549
H        0.586249       4.350051       3.210306
C        2.121543       3.862377       1.794659
H        1.831573       4.650473       1.113222
H        2.307401       2.362699      -2.692113
H        3.791219       4.177236      -3.031741
H        5.128042       3.382501      -2.190067
H        2.505587       4.264201      -0.921403
H        4.098266       4.982831      -0.610180
H        4.932964       2.816488       0.260858
C       -2.947014       1.559753       3.830779
C       -2.660859       2.930628       3.738822
C       -1.997863       3.416872       2.648074
C       -1.567380       2.556019       1.615418
C       -1.829599       1.157691       1.722545
C       -2.550874       0.696536       2.848876
C       -1.453467       0.282900       0.660781
C       -0.904088       0.818535      -0.509153
C       -0.617544       2.203662      -0.587158
C       -0.929744       3.042376       0.452856
H       -3.497032       1.191358       4.685233
H       -2.983227       3.596791       4.526843
H       -1.804932       4.474855       2.549740
H       -2.809082      -0.349977       2.905743
H       -0.174612       2.612311      -1.484451
H       -0.729244       4.102865       0.370062
O       -0.733122      -0.041609      -1.554368
C       -0.310939       0.462655      -2.795293
H       -0.998022       1.225347      -3.178650
H       -0.309683      -0.391331      -3.471270
H        0.701058       0.876432      -2.742054
H       -2.994768      -1.085687      -0.978901
C       -2.529591      -1.736981      -0.252583
C       -2.779511      -3.094123      -0.284116
H       -3.431248      -3.508418      -1.039945
C       -2.187955      -3.919561       0.657294
H       -2.370108      -4.983902       0.641132
C       -1.360601      -3.374340       1.620055
H       -0.897316      -4.020980       2.352994
C       -1.102233      -2.007661       1.675032
C       -1.701072      -1.177835       0.718008
C       -0.196415      -1.503468       2.758585
H        0.562668      -2.248865       2.996622
H       -0.762197      -1.296665       3.668069
H        0.320767      -0.566746       2.480907
84
-29.188165
Pd       1.037283       1.160090       1.535271
H        7.824932      -0.023381      -1.382071
C        6.901204      -0.244579      -0.868092
C        6.831479      -1.304461       0.020776
H        7.699426      -1.917853       0.209217
C        5.638635      -1.576519       0.662939
H        5.562205      -2.396727       1.360440
C        4.510500      -0.802104       0.422381
C        4.576040       0.284312      -0.454467
C        5.787096       0.542312      -1.090202
H        5.865546       1.374510      -1.770005
P        3.126350       1.397418      -0.658572
S        3.053362      -1.258498       1.343320
C        1.855440      -1.602091       0.005232
H        1.190701      -0.744816      -0.115875
H        2.406510      -1.812880      -0.905818
H        1.285628      -2.476851       0.306029
C        3.346849       2.148816      -2.387200
C        4.045133       3.502531      -2.212300
C        3.578786       4.059540      -0.871253
C        3.852424       2.959112       0.145289
C        3.920004       1.201535      -3.397343
C        4.873931       1.583855      -4.332195
H        5.232965       2.602456      -4.361197
C        5.374598       0.668287      -5.242189
H        6.119403       0.983104      -5.958962
C        4.928206      -0.640567      -5.238079
H        5.325344      -1.353203      -5.945084
C        3.965035      -1.029250      -4.321904
H        3.603800      -2.046730      -4.312752
C        3.467787      -0.114495      -3.415523
H        2.714963      -0.418400      -2.699310
C        3.204567       3.035946       1.493491
C        3.592688       2.073543       2.431550
H        4.458129       1.454513       2.230510
C        2.870380       1.882869       3.602534
H        3.178122       1.120531       4.305858
C        1.756457       2.678620       3.868409
H        1.184040       2.535095       4.776070
C        1.411834       3.688537       2.977434
H        0.586561       4.347327       3.208231
C        2.122271       3.860780       1.792952
H        1.831998       4.648972       1.111750
H        2.310622       2.363344      -2.694563
H        3.794297       4.178026      -3.033195
H        5.130274       3.382968      -2.190463
H        2.507465       4.264482      -0.923392
H        4.100086       4.983094      -0.611187
H        4.934104       2.816049       0.259172
C       -2.949538       1.559367       3.830625
C       -2.663085       2.930252       3.738298
C       -1.999979       3.416437       2.647704
C       -1.569389       2.555119       1.615352
C       -1.831351       1.156710       1.722719
C       -2.553261       0.696082       2.848914
C       -1.454838       0.281894       0.661156
C       -0.905021       0.817544      -0.508311
C       -0.619061       2.202515      -0.586875
C       -0.931850       3.041174       0.452897
H       -3.499798       1.191206       4.684949
H       -2.985544       3.596611       4.526137
H       -1.807037       4.475077       2.549060
H       -2.812070      -0.350325       2.905758
H       -0.175565       2.610984      -1.483962
H       -0.731747       4.101452       0.369940
O       -0.730962      -0.043702      -1.552727
C       -0.308563       0.460343      -2.793468
H       -0.997114       1.220833      -3.178395
H       -0.304232      -0.394276      -3.468668
H        0.702192       0.876814      -2.739250
H       -2.999363      -1.087126      -0.974272
C       -2.533894      -1.737486      -0.247595
C       -2.785420      -3.094428      -0.276872
H       -3.438713      -3.509006      -1.031292
C       -2.193935      -3.919008       0.665064
H       -2.377506      -4.983297       0.650772
C       -1.364957      -3.373190       1.626036
H       -0.901575      -4.019199       2.359371
C       -1.104880      -2.006763       1.678699
C       -1.703374      -1.177667       0.720815
C       -0.196775      -1.502641       2.760705
H        0.561504      -2.248550       2.998161
H       -0.760947      -1.294477       3.670980
H        0.321286      -0.567343       2.481714
