88
-30.645705
Pd       0.937984      -0.849031       0.682618
P        4.238858       1.486781       0.555287
P        0.806737       2.850691      -0.630917
C        3.657911      -0.235045       0.875673
C        3.882474      -1.282565      -0.022827
C        3.354730      -2.541041       0.225721
H        3.544125      -3.350570      -0.465701
C        2.595219      -2.773161       1.370424
H        2.194114      -3.761724       1.561132
C        2.416053      -1.754289       2.309589
H        1.914279      -1.961796       3.250921
H        4.480809      -1.113675      -0.908941
C        2.945403      -0.484110       2.057127
H        2.864653       0.304109       2.798810
C        3.431389       1.713301      -1.126016
C        1.928615       1.459563      -1.160181
C        5.936796       1.098405      -0.012806
C        6.687539       0.135534       0.656869
H        6.233370      -0.432520       1.458103
C        8.000597      -0.104889       0.299362
H        8.567852      -0.864370       0.818119
C        8.589746       0.627418      -0.718619
C        7.861467       1.611044      -1.366393
H        8.320775       2.195840      -2.150534
H        9.615314       0.438105      -0.999513
C        6.547000       1.852436      -1.010663
H        5.992631       2.632809      -1.512375
C        1.197993       4.172516      -1.830504
C        1.777650       3.973127      -3.077132
C        1.940979       5.035751      -3.949286
H        2.402537       4.870206      -4.912646
C        1.515394       6.304230      -3.596226
H        1.647404       7.130398      -4.279412
C        0.907964       6.507340      -2.367211
H        0.559776       7.492423      -2.091740
H        2.103237       2.989291      -3.380937
C        0.742447       5.448146      -1.497985
H        0.260898       5.596915      -0.539989
C        1.800831       3.387949       0.814088
C        2.732609       4.418587       0.816395
H        2.904705       5.001012      -0.077787
C        3.444953       4.703789       1.968392
H        4.177512       5.498244       1.960419
C        3.225184       3.979064       3.127021
C        2.287875       2.959252       3.134687
H        2.107429       2.400183       4.043111
H        3.782009       4.210195       4.023468
C        1.583492       2.662686       1.982641
H        0.853028       1.860253       1.968462
H        1.639793       0.601550      -0.494948
H        1.608679       1.186322      -2.172671
H        3.642195       2.745068      -1.425301
H        3.934744       1.042058      -1.832148
C       -1.909522       1.010397      -2.823483
C       -2.815091       2.046375      -2.546368
C       -3.101407       2.370288      -1.252162
C       -2.486832       1.695113      -0.176929
C       -1.548331       0.657588      -0.452333
C       -1.302340       0.333015      -1.806002
C       -0.901409      -0.000732       0.612895
C       -1.169236       0.404923       1.912904
C       -2.117066       1.402861       2.188710
C       -2.757519       2.034897       1.158103
H       -1.700250       0.751803      -3.852006
H       -3.283141       2.578339      -3.361981
H       -3.804486       3.159945      -1.026181
H       -0.612541      -0.469397      -2.015206
H       -2.318396       1.703805       3.205532
H       -3.466373       2.823265       1.365916
O       -0.423743      -0.222723       2.901611
C       -0.769471       0.000126       4.244839
H       -0.143124      -0.669850       4.834393
H       -1.822306      -0.235345       4.436475
H       -0.569380       1.034403       4.549771
H       -1.510318      -2.279255       2.167389
C       -1.234646      -2.850740       1.291177
C       -1.718391      -4.144182       1.171759
H       -2.334405      -4.560584       1.956339
C       -1.406605      -4.897653       0.055300
H       -1.774086      -5.908761      -0.044638
C       -0.606434      -4.348457      -0.927999
H       -0.343403      -4.937398      -1.796956
C       -0.104379      -3.054640      -0.819973
C       -0.446868      -2.282070       0.297956
C        0.790939      -2.565008      -1.933862
H        0.210481      -2.407973      -2.844688
H        1.550250      -3.314458      -2.157910
H        1.294577      -1.626621      -1.659226
88
-30.645704
Pd       0.938110      -0.848939       0.682671
P        4.238948       1.486769       0.555309
P        0.806781       2.850501      -0.630977
C        3.658015      -0.235033       0.875733
C        3.882530      -1.282554      -0.022763
C        3.354799      -2.540980       0.225814
H        3.544156      -3.350524      -0.465611
C        2.595312      -2.773072       1.370543
H        2.194183      -3.761640       1.561263
C        2.416188      -1.754188       2.309693
H        1.914421      -1.961657       3.251053
H        4.480852      -1.113674      -0.908936
C        2.945549      -0.484079       2.057195
H        2.864834       0.304165       2.798870
C        3.431463       1.713264      -1.126000
C        1.928745       1.459465      -1.160233
C        5.936865       1.098414      -0.012833
C        6.687646       0.135527       0.656816
H        6.233512      -0.432539       1.458052
C        8.000714      -0.104883       0.299258
H        8.567999      -0.864364       0.817979
C        8.589817       0.627448      -0.718735
C        7.861503       1.611082      -1.366474
H        8.320783       2.195895      -2.150626
H        9.615385       0.438149      -0.999669
C        6.547037       1.852461      -1.010699
H        5.992655       2.632831      -1.512382
C        1.197971       4.172382      -1.830521
C        1.777733       3.973075      -3.077108
C        1.941024       5.035695      -3.949237
H        2.402668       4.870193      -4.912563
C        1.515303       6.304112      -3.596215
H        1.647285       7.130291      -4.279393
C        0.907755       6.507164      -2.367225
H        0.559451       7.492208      -2.091769
H        2.103442       2.989270      -3.380901
C        0.742278       5.447936      -1.498011
H        0.260652       5.596639      -0.540054
C        1.800770       3.387787       0.814064
C        2.732468       4.418464       0.816458
H        2.904570       5.000925      -0.077693
C        3.444728       4.703670       1.968507
H        4.177238       5.498168       1.960610
C        3.224936       3.978902       3.127090
C        2.287690       2.959033       3.134672
H        2.107219       2.399923       4.043066
H        3.781698       4.210041       4.023583
C        1.583405       2.662465       1.982585
H        0.852980       1.859980       1.968329
H        1.639946       0.601402      -0.495029
H        1.608868       1.186243      -2.172743
H        3.642237       2.745036      -1.425266
H        3.934851       1.042041      -1.832125
C       -1.909812       1.010177      -2.823514
C       -2.815241       2.046265      -2.546370
C       -3.101381       2.370264      -1.252164
C       -2.486766       1.695073      -0.176998
C       -1.548408       0.657459      -0.452425
C       -1.302605       0.332802      -1.806084
C       -0.901421      -0.000893       0.612853
C       -1.169133       0.404835       1.912852
C       -2.116805       1.402850       2.188646
C       -2.757296       2.034938       1.158063
H       -1.700674       0.751501      -3.852028
H       -3.283317       2.578234      -3.361956
H       -3.804355       3.160007      -1.026132
H       -0.612923      -0.469694      -2.015339
H       -2.318004       1.703845       3.205425
H       -3.466044       2.823396       1.365916
O       -0.423634      -0.222835       2.901570
C       -0.769250       0.000092       4.244779
H       -0.142941      -0.669923       4.834306
H       -1.822082      -0.235260       4.436481
H       -0.569032       1.034342       4.549657
H       -1.510744      -2.278954       2.167346
C       -1.234957      -2.850430       1.291159
C       -1.718650      -4.143917       1.171672
H       -2.334740      -4.560369       1.956166
C       -1.406699      -4.897352       0.055223
H       -1.774111      -5.908458      -0.044792
C       -0.606446      -4.348098      -0.927934
H       -0.343295      -4.937020      -1.796831
C       -0.104455      -3.054269      -0.819853
C       -0.447069      -2.281715       0.297995
C        0.791042      -2.564654      -1.933681
H        0.210707      -2.407638      -2.844612
H        1.550382      -3.314147      -2.157612
H        1.294697      -1.626242      -1.659007
88
-30.645704
Pd       0.938323      -0.848906       0.682936
P        4.238993       1.486827       0.555029
P        0.806799       2.849955      -0.631930
C        3.658119      -0.234982       0.875544
C        3.882783      -1.282428      -0.022934
C        3.355195      -2.540914       0.225578
H        3.544702      -3.350386      -0.465887
C        2.595757      -2.773217       1.370321
H        2.194818      -3.761862       1.560973
C        2.416548      -1.754414       2.309559
H        1.914908      -1.962073       3.250938
H        4.481103      -1.113452      -0.909070
C        2.945666      -0.484135       2.057042
H        2.864937       0.303999       2.798827
C        3.431795       1.713122      -1.126433
C        1.929113       1.459091      -1.160922
C        5.937017       1.098569      -0.012865
C        6.687761       0.135719       0.656917
H        6.233530      -0.432378       1.458086
C        8.000921      -0.104606       0.299566
H        8.568174      -0.864053       0.818383
C        8.590146       0.627777      -0.718344
C        7.861883       1.611362      -1.366204
H        8.321264       2.196199      -2.150274
H        9.615769       0.438546      -0.999110
C        6.547328       1.852669      -1.010649
H        5.992988       2.633013      -1.512431
C        1.198040       4.171915      -1.831361
C        1.778059       3.972719      -3.077810
C        1.941363       5.035388      -3.949857
H        2.403208       4.869991      -4.913103
C        1.515399       6.303735      -3.596861
H        1.647394       7.129966      -4.279971
C        0.907614       6.506644      -2.368019
H        0.559129       7.491627      -2.092589
H        2.103944       2.988968      -3.381572
C        0.742126       5.447395      -1.498916
H        0.260306       5.596011      -0.541043
C        1.800361       3.387411       0.813334
C        2.731613       4.418484       0.816012
H        2.903672       5.001094      -0.078055
C        3.443473       4.703930       1.968305
H        4.175651       5.498748       1.960662
C        3.223665       3.978970       3.126816
C        2.286890       2.958687       3.134054
H        2.106435       2.399440       4.042367
H        3.780070       4.210293       4.023482
C        1.583045       2.661867       1.981717
H        0.853068       1.859006       1.967135
H        1.640350       0.601073      -0.495642
H        1.609459       1.185691      -2.173449
H        3.642525       2.744891      -1.425744
H        3.935390       1.041884      -1.832397
C       -1.909498       1.010835      -2.822915
C       -2.814908       2.046879      -2.545499
C       -3.101087       2.370526      -1.251199
C       -2.486513       1.695016      -0.176178
C       -1.548163       0.657405      -0.451854
C       -1.302309       0.333111      -1.805627
C       -0.901259      -0.001237       0.613263
C       -1.168875       0.404313       1.913385
C       -2.116566       1.402334       2.189402
C       -2.757056       2.034583       1.158935
H       -1.700325       0.752455      -3.851510
H       -3.282927       2.579103      -3.360951
H       -3.804036       3.160234      -1.024968
H       -0.612602      -0.469301      -2.015119
H       -2.317718       1.703187       3.206256
H       -3.465801       2.823001       1.366936
O       -0.423314      -0.223448       2.901981
C       -0.768959      -0.000818       4.245250
H       -0.142652      -0.670965       4.834639
H       -1.821799      -0.236214       4.436899
H       -0.568742       1.033365       4.550364
H       -1.510958      -2.278325       2.167718
C       -1.235268      -2.849740       1.291485
C       -1.719172      -4.143103       1.171927
H       -2.335277      -4.559502       1.956436
C       -1.407438      -4.896502       0.055377
H       -1.775074      -5.907531      -0.044694
C       -0.607130      -4.347321      -0.927761
H       -0.344102      -4.936219      -1.796728
C       -0.104901      -3.053595      -0.819625
C       -0.447378      -2.281055       0.298335
C        0.790736      -2.564228      -1.933425
H        0.210483      -2.407125      -2.844387
H        1.549870      -3.313926      -2.157291
H        1.294629      -1.625959      -1.658798
