84
-29.188165
Pd         1.03728        1.16009        1.53527
H          7.82493       -0.02338       -1.38207
C          6.90120       -0.24458       -0.86809
C          6.83148       -1.30446        0.02078
H          7.69943       -1.91785        0.20922
C          5.63863       -1.57652        0.66294
H          5.56220       -2.39673        1.36044
C          4.51050       -0.80210        0.42238
C          4.57604        0.28431       -0.45447
C          5.78710        0.54231       -1.09020
H          5.86555        1.37451       -1.77001
P          3.12635        1.39742       -0.65857
S          3.05336       -1.25850        1.34332
C          1.85544       -1.60209        0.00523
H          1.19070       -0.74482       -0.11588
H          2.40651       -1.81288       -0.90582
H          1.28563       -2.47685        0.30603
C          3.34685        2.14882       -2.38720
C          4.04513        3.50253       -2.21230
C          3.57879        4.05954       -0.87125
C          3.85242        2.95911        0.14529
C          3.92000        1.20154       -3.39734
C          4.87393        1.58386       -4.33219
H          5.23297        2.60246       -4.36120
C          5.37460        0.66829       -5.24219
H          6.11940        0.98310       -5.95896
C          4.92821       -0.64057       -5.23808
H          5.32534       -1.35320       -5.94508
C          3.96503       -1.02925       -4.32190
H          3.60380       -2.04673       -4.31275
C          3.46779       -0.11449       -3.41552
H          2.71496       -0.41840       -2.69931
C          3.20457        3.03595        1.49349
C          3.59269        2.07354        2.43155
H          4.45813        1.45451        2.23051
C          2.87038        1.88287        3.60253
H          3.17812        1.12053        4.30586
C          1.75646        2.67862        3.86841
H          1.18404        2.53510        4.77607
C          1.41183        3.68854        2.97743
H          0.58656        4.34733        3.20823
C          2.12227        3.86078        1.79295
H          1.83200        4.64897        1.11175
H          2.31062        2.36334       -2.69456
H          3.79430        4.17803       -3.03320
H          5.13027        3.38297       -2.19046
H          2.50746        4.26448       -0.92339
H          4.10009        4.98309       -0.61119
H          4.93410        2.81605        0.25917
C         -2.94954        1.55937        3.83062
C         -2.66309        2.93025        3.73830
C         -1.99998        3.41644        2.64770
C         -1.56939        2.55512        1.61535
C         -1.83135        1.15671        1.72272
C         -2.55326        0.69608        2.84891
C         -1.45484        0.28189        0.66116
C         -0.90502        0.81754       -0.50831
C         -0.61906        2.20252       -0.58688
C         -0.93185        3.04117        0.45290
H         -3.49980        1.19121        4.68495
H         -2.98554        3.59661        4.52614
H         -1.80704        4.47508        2.54906
H         -2.81207       -0.35032        2.90576
H         -0.17556        2.61098       -1.48396
H         -0.73175        4.10145        0.36994
O         -0.73096       -0.04370       -1.55273
C         -0.30856        0.46034       -2.79347
H         -0.99711        1.22083       -3.17840
H         -0.30423       -0.39428       -3.46867
H          0.70219        0.87681       -2.73925
H         -2.99936       -1.08713       -0.97427
C         -2.53389       -1.73749       -0.24760
C         -2.78542       -3.09443       -0.27687
H         -3.43871       -3.50901       -1.03129
C         -2.19394       -3.91901        0.66506
H         -2.37751       -4.98330        0.65077
C         -1.36496       -3.37319        1.62604
H         -0.90158       -4.01920        2.35937
C         -1.10488       -2.00676        1.67870
C         -1.70337       -1.17767        0.72081
C         -0.19678       -1.50264        2.76071
H          0.56150       -2.24855        2.99816
H         -0.76095       -1.29448        3.67098
H          0.32129       -0.56734        2.48171
84
-29.172543
Pd         1.10174        0.62755        0.52962
H          8.56475        0.53766       -0.05477
C          7.71453       -0.09684       -0.25905
C          7.89788       -1.31933       -0.87999
H          8.88777       -1.64510       -1.16164
C          6.80296       -2.12388       -1.14000
H          6.91894       -3.08061       -1.62634
C          5.54005       -1.69278       -0.78098
C          5.33172       -0.45676       -0.17191
C          6.44556        0.33140        0.08791
H          6.33980        1.30023        0.55198
P          3.57045        0.03327        0.06199
S          4.13535       -2.73346       -1.12714
C          3.83790       -3.33681        0.56340
H          3.68013       -2.48740        1.22639
H          2.94573       -3.95321        0.52691
H          4.69044       -3.92414        0.89153
C          3.49112        1.37304       -1.29603
C          3.70995        2.70311       -0.57788
C          3.04609        2.54317        0.78049
C          3.69061        1.30742        1.43528
C          4.37329        1.00629       -2.44707
C          5.60279        1.60519       -2.69138
H          5.94146        2.43359       -2.08813
C          6.41654        1.15471       -3.71611
H          7.37040        1.63300       -3.88684
C          6.02013        0.09630       -4.51242
H          6.66283       -0.25901       -5.30419
C          4.79131       -0.50071       -4.28744
H          4.46727       -1.32641       -4.90311
C          3.97783       -0.04708       -3.26838
H          3.02478       -0.52541       -3.09438
C          2.96441        0.93715        2.70838
C          3.18000        1.73780        3.82852
H          3.86891        2.56942        3.76113
C          2.53520        1.48506        5.02494
H          2.72415        2.11690        5.88123
C          1.64498        0.42738        5.12216
H          1.13240        0.23246        6.05304
C          1.42617       -0.38340        4.02297
H          0.74767       -1.22188        4.09212
C          2.08684       -0.14288        2.82454
H          1.95917       -0.86955        2.01547
H          2.43408        1.34882       -1.63242
H          3.27958        3.52671       -1.15269
H          4.77153        2.90948       -0.42789
H          1.95586        2.34064        0.64046
H          3.15799        3.43377        1.40441
H          4.73313        1.52793        1.69711
C         -2.14479        1.03611       -3.38283
C         -3.05652        2.10007       -3.43675
C         -3.19979        2.91497       -2.35209
C         -2.44450        2.71099       -1.17772
C         -1.50867        1.63437       -1.11557
C         -1.40004        0.81408       -2.25978
C         -0.75214        1.43135        0.06656
C         -0.94466        2.30278        1.13839
C         -1.87222        3.35316        1.07160
C         -2.60411        3.55279       -0.06592
H         -2.03435        0.38781       -4.24037
H         -3.63762        2.26625       -4.33223
H         -3.90004        3.73869       -2.37038
H         -0.70888       -0.00580       -2.23704
H         -2.00076        4.02198        1.90834
H         -3.31067        4.36835       -0.11950
O         -0.17693        2.07404        2.26960
C         -0.47024        2.79736        3.43674
H          0.17544        2.38611        4.21146
H         -1.51748        2.67393        3.73580
H         -0.25000        3.86497        3.31833
H         -1.58437        0.07892        2.20397
C         -1.37601       -0.75145        1.54374
C         -2.00103       -1.95835        1.80533
H         -2.65813       -2.04717        2.65888
C         -1.77456       -3.04576        0.98118
H         -2.25033       -3.99498        1.18030
C         -0.91202       -2.90960       -0.08788
H         -0.70246       -3.76175       -0.72057
C         -0.27251       -1.70470       -0.36909
C         -0.53571       -0.58789        0.44151
C          0.70064       -1.70019       -1.52154
H          1.44486       -2.48352       -1.37631
H          1.22411       -0.73817       -1.58424
H          0.19503       -1.90892       -2.46539
